/*---------------------------------------------------------------------------*\
| =========                 |                                                 |
| \\      /  F ield         | OpenFOAM: The Open Source CFD Toolbox           |
|  \\    /   O peration     | Version:  2406                                  |
|   \\  /    A nd           | Website:  www.openfoam.com                      |
|    \\/     M anipulation  |                                                 |
\*---------------------------------------------------------------------------*/
Build  : _630d60de3b-20240620 OPENFOAM=2406 version=v2406
Arch   : "LSB;label=32;scalar=64"
Exec   : blockMesh
Date   : Dec 30 2025
Time   : 13:22:43
Host   : henning-MS-7E26
PID    : 37510
I/O    : uncollated
Case   : /home/henning/libsAndApps/pyOFTools/tests/integration/cube
nProcs : 1
trapFpe: Floating point exception trapping enabled (FOAM_SIGFPE).
fileModificationChecking : Monitoring run-time modified files using timeStampMaster (fileModificationSkew 5, maxFileModificationPolls 20)
allowSystemOperations : Allowing user-supplied system call operations

// * * * * * * * * * * * * * * * * * * * * * * * * * * * * * * * * * * * * * //
Create time

Creating block mesh from "system/blockMeshDict"
Creating block edges
No non-planar block faces defined
Creating topology blocks

Creating topology patches - from boundary section

Creating block mesh topology

Check topology

	Basic statistics
		Number of internal faces : 0
		Number of boundary faces : 6
		Number of defined boundary faces : 6
		Number of undefined boundary faces : 0
	Checking patch -> block consistency

Creating block offsets
Creating merge list (topological search)...

Creating polyMesh from blockMesh
Creating patches
Creating cells
Creating points with scale (1 1 1)
    Block 0 cell size :
        i : 0.05 .. 0.05
        j : 0.05 .. 0.05
        k : 0.05 .. 0.05

No patch pairs to merge

Writing polyMesh with 0 cellZones
----------------
Mesh Information
----------------
  boundingBox: (-0.25 -0.25 -0.25) (0.25 0.25 0.25)
  nPoints: 1331
  nCells: 1000
  nFaces: 3300
  nInternalFaces: 2700
----------------
Patches
----------------
  patch 0 (start: 2700 size: 100) name: topWall
  patch 1 (start: 2800 size: 100) name: leftWall
  patch 2 (start: 2900 size: 100) name: rightWall
  patch 3 (start: 3000 size: 100) name: bottomWall
  patch 4 (start: 3100 size: 100) name: frontWall
  patch 5 (start: 3200 size: 100) name: backWall

End
